data/raw/Mayr/pf6.xyz
 OpenBabel03182318003D

  7  6  0  0  0  0  0  0  0  0999 V2000
    1.1811    1.0298   -0.5139 F   0  0  0  0  0  0  0  0  0  0  0  0
    0.0000    0.0000    0.0000 P   0  0  0  0  0  0  0  0  0  0  0  0
    0.2201   -0.9252   -1.3459 F   0  0  0  0  0  0  0  0  0  0  0  0
   -0.2201    0.9252    1.3459 F   0  0  0  0  0  0  0  0  0  0  0  0
    1.1301   -0.8960    0.7991 F   0  0  0  0  0  0  0  0  0  0  0  0
   -1.1301    0.8960   -0.7991 F   0  0  0  0  0  0  0  0  0  0  0  0
   -1.1811   -1.0298    0.5139 F   0  0  0  0  0  0  0  0  0  0  0  0
  1  2  1  0  0  0  0
  2  7  1  0  0  0  0
  2  5  1  0  0  0  0
  2  4  1  0  0  0  0
  3  2  1  0  0  0  0
  6  2  1  0  0  0  0
M  END
$$$$
